Circuit: * C:\IDMV\Electronica\Proyectos\AMSAT\repositorio\easat-2\hardware\Simulaciones\LPF 1 KHz\LPF 1KHz.asc

Direct Newton iteration for .op point succeeded.

Date: Mon Jan 02 23:20:24 2017
Total elapsed time: 0.507 seconds.

tnom = 27
temp = 27
method = modified trap
totiter = 4199
traniter = 4174
tranpoints = 1934
accept = 1516
rejected = 418
matrix size = 25
fillins = 27
solver = Normal
Thread vector: 47.7/27.7[3] 15.8/11.0[3] 4.8/4.6[1] 0.7/2.3[1]  2592/500
Matrix Compiler1: 2.91 KB object code size  2.8/1.6/[0.8]
Matrix Compiler2: 2.83 KB object code size  1.6/1.3/[1.2]


